untitled
  ChemPy            3D                             0

203221  0  0  1  0  0  0  0  0999 V2000
   16.4070   -3.8360   -0.7160 N   0  0  0  0  0  0  0  0  0  0  0  0
   16.5390   -4.2440    0.5280 C   0  0  0  0  0  0  0  0  0  0  0  0
   16.5310   -5.3100    1.8570 C   0  0  0  0  0  0  0  0  0  0  0  0
   17.5970   -5.8590    2.1770 O   0  0  0  0  0  0  0  0  0  0  0  0
   15.5890   -3.0620    0.6500 C   0  0  0  0  0  0  0  0  0  0  0  0
   16.5730   -2.9080   -0.7980 H   0  0  0  0  0  0  0  0  0  0  0  0
   17.5900   -4.1570    0.8030 H   0  0  0  0  0  0  0  0  0  0  0  0
   15.9050   -2.4250    1.4760 H   0  0  0  0  0  0  0  0  0  0  0  0
   15.6010   -2.4880   -0.2760 H   0  0  0  0  0  0  0  0  0  0  0  0
   14.5790   -3.4250    0.8390 H   0  0  0  0  0  0  0  0  0  0  0  0
   15.3080   -5.6800    2.6030 N   0  0  0  0  0  0  0  0  0  0  0  0
   15.6070   -6.8050    3.7060 C   0  0  0  0  0  0  0  0  0  0  0  0
   14.9330   -8.0730    3.5980 C   0  0  0  0  0  0  0  0  0  0  0  0
   15.3230   -9.0500    4.2380 O   0  0  0  0  0  0  0  0  0  0  0  0
   14.3670   -5.3270    2.5030 H   0  0  0  0  0  0  0  0  0  0  0  0
   16.6720   -7.0360    3.7110 H   0  0  0  0  0  0  0  0  0  0  0  0
   15.3570   -6.4210    4.6940 H   0  0  0  0  0  0  0  0  0  0  0  0
   13.9270   -8.0500    2.7880 N   0  0  0  0  0  0  0  0  0  0  0  0
   13.0360   -9.1480    2.7050 C   0  0  0  0  0  0  0  0  0  0  0  0
   13.4230  -10.3500    2.4020 C   0  0  0  0  0  0  0  0  0  0  0  0
   12.8070  -11.3330    2.8140 O   0  0  0  0  0  0  0  0  0  0  0  0
   13.7680   -7.2420    2.2040 H   0  0  0  0  0  0  0  0  0  0  0  0
   12.5310   -9.2800    3.6620 H   0  0  0  0  0  0  0  0  0  0  0  0
   12.2670   -8.9360    1.9630 H   0  0  0  0  0  0  0  0  0  0  0  0
   14.3200  -10.4450    1.7650 N   0  0  0  0  0  0  0  0  0  0  0  0
   14.4780  -11.7360    1.5960 C   0  0  0  0  0  0  0  0  0  0  0  0
   16.0160  -11.7930    1.3360 C   0  0  0  0  0  0  0  0  0  0  0  0
   16.6550  -11.2190    0.4460 O   0  0  0  0  0  0  0  0  0  0  0  0
   13.6230  -12.2400    0.4500 C   0  0  0  0  0  0  0  0  0  0  0  0
   13.8000  -13.6160    0.2590 O   0  0  0  0  0  0  0  0  0  0  0  0
   14.8340   -9.6970    1.3490 H   0  0  0  0  0  0  0  0  0  0  0  0
   14.1680  -12.2450    2.5090 H   0  0  0  0  0  0  0  0  0  0  0  0
   12.5740  -12.0310    0.6600 H   0  0  0  0  0  0  0  0  0  0  0  0
   13.8860  -11.7060   -0.4620 H   0  0  0  0  0  0  0  0  0  0  0  0
   13.5380  -14.0340    1.0820 H   0  0  0  0  0  0  0  0  0  0  0  0
   16.6750  -12.7750    1.8710 N   0  0  0  0  0  0  0  0  0  0  0  0
   18.0690  -12.6960    1.5160 C   0  0  0  0  0  0  0  0  0  0  0  0
   18.4160  -12.8280    0.0530 C   0  0  0  0  0  0  0  0  0  0  0  0
   19.4250  -12.2930   -0.4060 O   0  0  0  0  0  0  0  0  0  0  0  0
   16.3600  -13.5310    2.4620 H   0  0  0  0  0  0  0  0  0  0  0  0
   18.4760  -11.7400    1.8460 H   0  0  0  0  0  0  0  0  0  0  0  0
   18.6220  -13.4770    2.0370 H   0  0  0  0  0  0  0  0  0  0  0  0
   17.5770  -13.5360   -0.6600 N   0  0  0  0  0  0  0  0  0  0  0  0
   17.5530  -13.6430   -2.1300 C   0  0  0  0  0  0  0  0  0  0  0  0
   16.9510  -12.3550   -2.9770 C   0  0  0  0  0  0  0  0  0  0  0  0
   16.6210  -12.4750   -4.1560 O   0  0  0  0  0  0  0  0  0  0  0  0
   16.8930  -14.0470   -0.1190 H   0  0  0  0  0  0  0  0  0  0  0  0
   18.5650  -13.8090   -2.4990 H   0  0  0  0  0  0  0  0  0  0  0  0
   16.9590  -14.5080   -2.4220 H   0  0  0  0  0  0  0  0  0  0  0  0
   16.7460  -10.9870   -2.4640 N   0  0  0  0  0  0  0  0  0  0  0  0
   15.9680   -9.7050   -3.2110 C   0  0  0  0  0  0  0  0  0  0  0  0
   16.3790   -9.7470   -4.5010 C   0  0  0  0  0  0  0  0  0  0  0  0
   15.6040   -9.8520   -5.4290 O   0  0  0  0  0  0  0  0  0  0  0  0
   16.3110   -8.3180   -2.7020 C   0  0  0  0  0  0  0  0  0  0  0  0
   15.6430   -7.3330   -3.4410 O   0  0  0  0  0  0  0  0  0  0  0  0
   17.0510  -10.9850   -1.5010 H   0  0  0  0  0  0  0  0  0  0  0  0
   14.8930   -9.8160   -3.0600 H   0  0  0  0  0  0  0  0  0  0  0  0
   16.0370   -8.2380   -1.6510 H   0  0  0  0  0  0  0  0  0  0  0  0
   17.3870   -8.1610   -2.7720 H   0  0  0  0  0  0  0  0  0  0  0  0
   15.6180   -6.5530   -2.8800 H   0  0  0  0  0  0  0  0  0  0  0  0
   17.5350   -9.6810   -4.5890 N   0  0  0  0  0  0  0  0  0  0  0  0
   18.0490   -9.6140   -5.8220 C   0  0  0  0  0  0  0  0  0  0  0  0
   17.1800   -8.5040   -6.7200 C   0  0  0  0  0  0  0  0  0  0  0  0
   17.2490   -8.4970   -7.9490 O   0  0  0  0  0  0  0  0  0  0  0  0
   18.1590   -9.6710   -3.7950 H   0  0  0  0  0  0  0  0  0  0  0  0
   19.0990   -9.3260   -5.7630 H   0  0  0  0  0  0  0  0  0  0  0  0
   18.0110  -10.5990   -6.2850 H   0  0  0  0  0  0  0  0  0  0  0  0
   16.3360   -7.5220   -6.2600 N   0  0  0  0  0  0  0  0  0  0  0  0
   15.6220   -6.7900   -7.3400 C   0  0  0  0  0  0  0  0  0  0  0  0
   16.3370   -5.7780   -7.8690 C   0  0  0  0  0  0  0  0  0  0  0  0
   16.3270   -5.5650   -9.0810 O   0  0  0  0  0  0  0  0  0  0  0  0
   16.1660   -7.2670   -5.2980 H   0  0  0  0  0  0  0  0  0  0  0  0
   15.3620   -7.4830   -8.1400 H   0  0  0  0  0  0  0  0  0  0  0  0
   14.6890   -6.3850   -6.9500 H   0  0  0  0  0  0  0  0  0  0  0  0
   16.9670   -5.1230   -7.0630 N   0  0  0  0  0  0  0  0  0  0  0  0
   17.4190   -3.9510   -7.6450 C   0  0  0  0  0  0  0  0  0  0  0  0
   18.7670   -4.2010   -7.6030 C   0  0  0  0  0  0  0  0  0  0  0  0
   19.5240   -3.6640   -6.7740 O   0  0  0  0  0  0  0  0  0  0  0  0
   17.0510   -2.6920   -6.8850 C   0  0  0  0  0  0  0  0  0  0  0  0
   17.6260   -1.5600   -7.4790 O   0  0  0  0  0  0  0  0  0  0  0  0
   17.0960   -5.4060   -6.1100 H   0  0  0  0  0  0  0  0  0  0  0  0
   16.9700   -3.8620   -8.6360 H   0  0  0  0  0  0  0  0  0  0  0  0
   15.9670   -2.5840   -6.8630 H   0  0  0  0  0  0  0  0  0  0  0  0
   17.3920   -2.7770   -5.8540 H   0  0  0  0  0  0  0  0  0  0  0  0
   18.5290   -1.5210   -7.1550 H   0  0  0  0  0  0  0  0  0  0  0  0
   18.9320   -4.4910   -8.7130 N   0  0  0  0  0  0  0  0  0  0  0  0
   19.9600   -4.9640   -9.1750 C   0  0  0  0  0  0  0  0  0  0  0  0
   21.3490   -4.2820   -8.9550 C   0  0  0  0  0  0  0  0  0  0  0  0
   22.3940   -4.9050   -9.1430 O   0  0  0  0  0  0  0  0  0  0  0  0
   18.1460   -4.3290   -9.3260 H   0  0  0  0  0  0  0  0  0  0  0  0
   20.0990   -5.9760   -8.7920 H   0  0  0  0  0  0  0  0  0  0  0  0
   19.8710   -5.0400  -10.2580 H   0  0  0  0  0  0  0  0  0  0  0  0
   21.3870   -3.0600   -8.5760 N   0  0  0  0  0  0  0  0  0  0  0  0
   22.6560   -2.3610   -8.3640 C   0  0  0  0  0  0  0  0  0  0  0  0
   23.1440   -2.5590   -7.1500 C   0  0  0  0  0  0  0  0  0  0  0  0
   24.3160   -2.2860   -6.8900 O   0  0  0  0  0  0  0  0  0  0  0  0
   20.5210   -2.5660   -8.4180 H   0  0  0  0  0  0  0  0  0  0  0  0
   23.3850   -2.6990   -9.1010 H   0  0  0  0  0  0  0  0  0  0  0  0
   22.5130   -1.2930   -8.5200 H   0  0  0  0  0  0  0  0  0  0  0  0
   22.2580   -3.0400   -6.3740 N   0  0  0  0  0  0  0  0  0  0  0  0
   22.8370   -3.0380   -5.2040 C   0  0  0  0  0  0  0  0  0  0  0  0
   23.1530   -4.5440   -5.2020 C   0  0  0  0  0  0  0  0  0  0  0  0
   23.7150   -5.0170   -4.2130 O   0  0  0  0  0  0  0  0  0  0  0  0
   21.9140   -2.5620   -4.0990 C   0  0  0  0  0  0  0  0  0  0  0  0
   21.7280   -1.1740   -4.1630 O   0  0  0  0  0  0  0  0  0  0  0  0
   21.3100   -3.1150   -6.4330 H   0  0  0  0  0  0  0  0  0  0  0  0
   23.6880   -2.3560   -5.2400 H   0  0  0  0  0  0  0  0  0  0  0  0
   20.9510   -3.0650   -4.1870 H   0  0  0  0  0  0  0  0  0  0  0  0
   22.3360   -2.8310   -3.1320 H   0  0  0  0  0  0  0  0  0  0  0  0
   22.1820   -0.8830   -4.9570 H   0  0  0  0  0  0  0  0  0  0  0  0
   22.9990   -5.2610   -6.3890 N   0  0  0  0  0  0  0  0  0  0  0  0
   23.1620   -6.7210   -6.2410 C   0  0  0  0  0  0  0  0  0  0  0  0
   24.3450   -7.4430   -5.6870 C   0  0  0  0  0  0  0  0  0  0  0  0
   24.4350   -8.6680   -5.7780 O   0  0  0  0  0  0  0  0  0  0  0  0
   22.7940   -4.8780   -7.3010 H   0  0  0  0  0  0  0  0  0  0  0  0
   22.3650   -7.1150   -5.6110 H   0  0  0  0  0  0  0  0  0  0  0  0
   23.0660   -7.1980   -7.2160 H   0  0  0  0  0  0  0  0  0  0  0  0
   25.3310   -6.8360   -5.0890 N   0  0  0  0  0  0  0  0  0  0  0  0
   25.7900   -8.1060   -4.6660 C   0  0  0  0  0  0  0  0  0  0  0  0
   24.9790   -8.2680   -3.4720 C   0  0  0  0  0  0  0  0  0  0  0  0
   25.2000   -9.1850   -2.6800 O   0  0  0  0  0  0  0  0  0  0  0  0
   25.8490   -6.0110   -4.8220 H   0  0  0  0  0  0  0  0  0  0  0  0
   25.6140   -8.8380   -5.4540 H   0  0  0  0  0  0  0  0  0  0  0  0
   26.8660   -8.0670   -4.4990 H   0  0  0  0  0  0  0  0  0  0  0  0
   23.9610   -7.4520   -3.1590 N   0  0  0  0  0  0  0  0  0  0  0  0
   23.6450   -8.0880   -1.8420 C   0  0  0  0  0  0  0  0  0  0  0  0
   23.0340   -9.3370   -1.7650 C   0  0  0  0  0  0  0  0  0  0  0  0
   23.7100  -10.3200   -1.4300 O   0  0  0  0  0  0  0  0  0  0  0  0
   22.7390   -7.1880   -1.0260 C   0  0  0  0  0  0  0  0  0  0  0  0
   21.4840   -7.0550   -1.6330 O   0  0  0  0  0  0  0  0  0  0  0  0
   23.5830   -6.6610   -3.8290 H   0  0  0  0  0  0  0  0  0  0  0  0
   24.5780   -8.2350   -1.2960 H   0  0  0  0  0  0  0  0  0  0  0  0
   22.6200   -7.6030   -0.0250 H   0  0  0  0  0  0  0  0  0  0  0  0
   23.2010   -6.2070   -0.9200 H   0  0  0  0  0  0  0  0  0  0  0  0
   21.5950   -6.4030   -2.3300 H   0  0  0  0  0  0  0  0  0  0  0  0
   21.8740   -9.5090   -1.8050 N   0  0  0  0  0  0  0  0  0  0  0  0
   22.1410  -10.8340   -1.6180 C   0  0  0  0  0  0  0  0  0  0  0  0
   22.4830  -11.8040   -2.8830 C   0  0  0  0  0  0  0  0  0  0  0  0
   21.6970  -12.6850   -3.2320 O   0  0  0  0  0  0  0  0  0  0  0  0
   20.9140   -9.2090   -1.8960 H   0  0  0  0  0  0  0  0  0  0  0  0
   22.9970  -10.9410   -0.9520 H   0  0  0  0  0  0  0  0  0  0  0  0
   21.2920  -11.3110   -1.1300 H   0  0  0  0  0  0  0  0  0  0  0  0
   23.6730  -11.6060   -3.5460 N   0  0  0  0  0  0  0  0  0  0  0  0
   24.1530  -12.1440   -4.8540 C   0  0  0  0  0  0  0  0  0  0  0  0
   22.9340  -11.6400   -6.0320 C   0  0  0  0  0  0  0  0  0  0  0  0
   22.8630  -12.1800   -7.1360 O   0  0  0  0  0  0  0  0  0  0  0  0
   24.2760  -10.9920   -3.0160 H   0  0  0  0  0  0  0  0  0  0  0  0
   25.1430  -11.7440   -5.0720 H   0  0  0  0  0  0  0  0  0  0  0  0
   24.2520  -13.2270   -4.7870 H   0  0  0  0  0  0  0  0  0  0  0  0
   21.8340  -10.6020   -6.0410 N   0  0  0  0  0  0  0  0  0  0  0  0
   21.4740  -11.0020   -7.5170 C   0  0  0  0  0  0  0  0  0  0  0  0
   21.1050   -9.7850   -7.1720 C   0  0  0  0  0  0  0  0  0  0  0  0
   21.3960   -9.2430   -6.1150 O   0  0  0  0  0  0  0  0  0  0  0  0
   20.3980  -12.0180   -7.8460 C   0  0  0  0  0  0  0  0  0  0  0  0
   20.3080  -12.2240   -9.2290 O   0  0  0  0  0  0  0  0  0  0  0  0
   22.2440   -9.8770   -5.5120 H   0  0  0  0  0  0  0  0  0  0  0  0
   22.3600  -11.4350   -7.9830 H   0  0  0  0  0  0  0  0  0  0  0  0
   20.6240  -12.9610   -7.3490 H   0  0  0  0  0  0  0  0  0  0  0  0
   19.4400  -11.6690   -7.4650 H   0  0  0  0  0  0  0  0  0  0  0  0
   21.2120  -12.2310   -9.5550 H   0  0  0  0  0  0  0  0  0  0  0  0
   20.9420   -9.2950   -8.0300 N   0  0  0  0  0  0  0  0  0  0  0  0
   20.5480   -8.1800   -8.2350 C   0  0  0  0  0  0  0  0  0  0  0  0
   21.4220   -8.1840   -9.3310 C   0  0  0  0  0  0  0  0  0  0  0  0
   22.6190   -8.4300   -9.1820 O   0  0  0  0  0  0  0  0  0  0  0  0
   21.1630   -9.8910   -8.8150 H   0  0  0  0  0  0  0  0  0  0  0  0
   19.4670   -8.1970   -8.3800 H   0  0  0  0  0  0  0  0  0  0  0  0
   20.7460   -7.5580   -7.3630 H   0  0  0  0  0  0  0  0  0  0  0  0
   20.8870   -7.9370  -10.3420 N   0  0  0  0  0  0  0  0  0  0  0  0
   21.1590   -7.7110  -11.6800 C   0  0  0  0  0  0  0  0  0  0  0  0
   21.7040   -6.5240  -12.4850 C   0  0  0  0  0  0  0  0  0  0  0  0
   21.9580   -6.6400  -13.6840 O   0  0  0  0  0  0  0  0  0  0  0  0
   19.9300   -7.8990  -10.0210 H   0  0  0  0  0  0  0  0  0  0  0  0
   21.8850   -8.4450  -12.0320 H   0  0  0  0  0  0  0  0  0  0  0  0
   20.2510   -7.8520  -12.2650 H   0  0  0  0  0  0  0  0  0  0  0  0
   21.8540   -5.5270  -11.8760 N   0  0  0  0  0  0  0  0  0  0  0  0
   22.1750   -4.1570  -12.2280 C   0  0  0  0  0  0  0  0  0  0  0  0
   21.1950   -3.6900  -12.9920 C   0  0  0  0  0  0  0  0  0  0  0  0
   21.2550   -3.4190  -14.1910 O   0  0  0  0  0  0  0  0  0  0  0  0
   23.4730   -4.0140  -12.9990 C   0  0  0  0  0  0  0  0  0  0  0  0
   23.9230   -2.6870  -12.9820 O   0  0  0  0  0  0  0  0  0  0  0  0
   22.1110   -5.8910  -10.9050 H   0  0  0  0  0  0  0  0  0  0  0  0
   22.2840   -3.5800  -11.3090 H   0  0  0  0  0  0  0  0  0  0  0  0
   24.2300   -4.6640  -12.5610 H   0  0  0  0  0  0  0  0  0  0  0  0
   23.3210   -4.3360  -14.0290 H   0  0  0  0  0  0  0  0  0  0  0  0
   23.1410   -2.1400  -13.0860 H   0  0  0  0  0  0  0  0  0  0  0  0
   20.1940   -3.5670  -12.2720 N   0  0  0  0  0  0  0  0  0  0  0  0
   19.2500   -3.4860  -13.1490 C   0  0  0  0  0  0  0  0  0  0  0  0
   19.0010   -2.4890  -14.2500 C   0  0  0  0  0  0  0  0  0  0  0  0
   18.9110   -2.8490  -15.4410 O   0  0  0  0  0  0  0  0  0  0  0  0
   18.0300   -3.5390  -12.2320 C   0  0  0  0  0  0  0  0  0  0  0  0
   17.6940   -4.9280  -11.7100 C   0  0  0  0  0  0  0  0  0  0  0  0
   16.6050   -5.8430  -12.8190 S   0  0  0  0  0  0  0  0  0  0  0  0
   15.0380   -5.0430  -12.4900 C   0  0  0  0  0  0  0  0  0  0  0  0
   18.8975   -1.4328  -14.0015 H   0  0  0  0  0  0  0  0  0  0  0  0
   20.1490   -3.5520  -11.2380 H   0  0  0  0  0  0  0  0  0  0  0  0
   19.3260   -4.3430  -13.8190 H   0  0  0  0  0  0  0  0  0  0  0  0
   18.1930   -2.8890  -11.3730 H   0  0  0  0  0  0  0  0  0  0  0  0
   17.1570   -3.1620  -12.7660 H   0  0  0  0  0  0  0  0  0  0  0  0
   18.6130   -5.5000  -11.5800 H   0  0  0  0  0  0  0  0  0  0  0  0
   17.2060   -4.8440  -10.7390 H   0  0  0  0  0  0  0  0  0  0  0  0
   14.2600   -5.4990  -13.1030 H   0  0  0  0  0  0  0  0  0  0  0  0
   14.7840   -5.1580  -11.4350 H   0  0  0  0  0  0  0  0  0  0  0  0
   15.1130   -3.9820  -12.7310 H   0  0  0  0  0  0  0  0  0  0  0  0
  1  2  1  0  0  0  0
  1  5  1  0  0  0  0
  1  6  1  0  0  0  0
  2  3  1  0  0  0  0
  2  5  1  0  0  0  0
  2  7  1  0  0  0  0
  3  4  2  0  0  0  0
  3 11  1  0  0  0  0
  5  8  1  0  0  0  0
  5  9  1  0  0  0  0
  5 10  1  0  0  0  0
 11 12  1  0  0  0  0
 11 15  1  0  0  0  0
 12 13  1  0  0  0  0
 12 16  1  0  0  0  0
 12 17  1  0  0  0  0
 13 14  2  0  0  0  0
 13 18  1  0  0  0  0
 18 19  1  0  0  0  0
 18 22  1  0  0  0  0
 19 20  1  0  0  0  0
 19 23  1  0  0  0  0
 19 24  1  0  0  0  0
 20 21  2  0  0  0  0
 20 25  1  0  0  0  0
 20 26  1  0  0  0  0
 25 26  1  0  0  0  0
 25 31  1  0  0  0  0
 26 27  1  0  0  0  0
 26 29  1  0  0  0  0
 26 32  1  0  0  0  0
 27 28  2  0  0  0  0
 27 36  1  0  0  0  0
 29 30  1  0  0  0  0
 29 33  1  0  0  0  0
 29 34  1  0  0  0  0
 30 35  1  0  0  0  0
 36 37  1  0  0  0  0
 36 40  1  0  0  0  0
 37 38  1  0  0  0  0
 37 41  1  0  0  0  0
 37 42  1  0  0  0  0
 38 39  2  0  0  0  0
 38 43  1  0  0  0  0
 43 44  1  0  0  0  0
 43 47  1  0  0  0  0
 44 45  1  0  0  0  0
 44 48  1  0  0  0  0
 44 49  1  0  0  0  0
 45 46  2  0  0  0  0
 45 50  1  0  0  0  0
 50 51  1  0  0  0  0
 50 56  1  0  0  0  0
 51 52  1  0  0  0  0
 51 54  1  0  0  0  0
 51 57  1  0  0  0  0
 52 53  2  0  0  0  0
 52 61  1  0  0  0  0
 54 55  1  0  0  0  0
 54 58  1  0  0  0  0
 54 59  1  0  0  0  0
 55 60  1  0  0  0  0
 61 62  1  0  0  0  0
 61 65  1  0  0  0  0
 62 63  1  0  0  0  0
 62 66  1  0  0  0  0
 62 67  1  0  0  0  0
 63 64  2  0  0  0  0
 63 68  1  0  0  0  0
 68 69  1  0  0  0  0
 68 72  1  0  0  0  0
 69 70  1  0  0  0  0
 69 73  1  0  0  0  0
 69 74  1  0  0  0  0
 70 71  2  0  0  0  0
 70 75  1  0  0  0  0
 75 76  1  0  0  0  0
 75 81  1  0  0  0  0
 76 77  1  0  0  0  0
 76 79  1  0  0  0  0
 76 82  1  0  0  0  0
 76 86  1  0  0  0  0
 77 78  2  0  0  0  0
 77 86  1  0  0  0  0
 79 80  1  0  0  0  0
 79 83  1  0  0  0  0
 79 84  1  0  0  0  0
 80 85  1  0  0  0  0
 86 87  1  0  0  0  0
 86 90  1  0  0  0  0
 87 88  1  0  0  0  0
 87 91  1  0  0  0  0
 87 92  1  0  0  0  0
 88 89  2  0  0  0  0
 88 93  1  0  0  0  0
 93 94  1  0  0  0  0
 93 97  1  0  0  0  0
 94 95  1  0  0  0  0
 94 98  1  0  0  0  0
 94 99  1  0  0  0  0
 95 96  2  0  0  0  0
 95100  1  0  0  0  0
 95101  1  0  0  0  0
100101  1  0  0  0  0
100106  1  0  0  0  0
101102  1  0  0  0  0
101104  1  0  0  0  0
101107  1  0  0  0  0
102103  2  0  0  0  0
102111  1  0  0  0  0
104105  1  0  0  0  0
104108  1  0  0  0  0
104109  1  0  0  0  0
105110  1  0  0  0  0
111112  1  0  0  0  0
111115  1  0  0  0  0
112113  1  0  0  0  0
112116  1  0  0  0  0
112117  1  0  0  0  0
113114  2  0  0  0  0
113118  1  0  0  0  0
113119  1  0  0  0  0
114119  1  0  0  0  0
114123  1  0  0  0  0
118119  1  0  0  0  0
118122  1  0  0  0  0
119120  1  0  0  0  0
119123  1  0  0  0  0
119124  1  0  0  0  0
120121  2  0  0  0  0
120125  1  0  0  0  0
125126  1  0  0  0  0
125131  1  0  0  0  0
126127  1  0  0  0  0
126129  1  0  0  0  0
126132  1  0  0  0  0
127128  2  0  0  0  0
127136  1  0  0  0  0
127137  1  0  0  0  0
128137  1  0  0  0  0
128141  1  0  0  0  0
129130  1  0  0  0  0
129133  1  0  0  0  0
129134  1  0  0  0  0
130135  1  0  0  0  0
136137  1  0  0  0  0
136140  1  0  0  0  0
137138  1  0  0  0  0
137141  1  0  0  0  0
137142  1  0  0  0  0
138139  2  0  0  0  0
138143  1  0  0  0  0
143144  1  0  0  0  0
143147  1  0  0  0  0
144145  1  0  0  0  0
144148  1  0  0  0  0
144149  1  0  0  0  0
145146  2  0  0  0  0
145150  1  0  0  0  0
146151  1  0  0  0  0
146157  1  0  0  0  0
150151  1  0  0  0  0
150152  1  0  0  0  0
150153  1  0  0  0  0
150156  1  0  0  0  0
151152  1  0  0  0  0
151154  1  0  0  0  0
151157  1  0  0  0  0
151161  1  0  0  0  0
152153  2  0  0  0  0
152161  1  0  0  0  0
152162  1  0  0  0  0
153156  1  0  0  0  0
154155  1  0  0  0  0
154158  1  0  0  0  0
154159  1  0  0  0  0
155160  1  0  0  0  0
161162  1  0  0  0  0
161163  1  0  0  0  0
161165  1  0  0  0  0
162163  1  0  0  0  0
162166  1  0  0  0  0
162167  1  0  0  0  0
163164  2  0  0  0  0
163168  1  0  0  0  0
168169  1  0  0  0  0
168172  1  0  0  0  0
169170  1  0  0  0  0
169173  1  0  0  0  0
169174  1  0  0  0  0
170171  2  0  0  0  0
170175  1  0  0  0  0
175176  1  0  0  0  0
175181  1  0  0  0  0
176177  1  0  0  0  0
176179  1  0  0  0  0
176182  1  0  0  0  0
177178  2  0  0  0  0
177186  1  0  0  0  0
177187  1  0  0  0  0
179180  1  0  0  0  0
179183  1  0  0  0  0
179184  1  0  0  0  0
180185  1  0  0  0  0
186187  1  0  0  0  0
186195  1  0  0  0  0
187188  1  0  0  0  0
187190  1  0  0  0  0
187196  1  0  0  0  0
188189  2  0  0  0  0
188194  1  0  0  0  0
190191  1  0  0  0  0
190197  1  0  0  0  0
190198  1  0  0  0  0
191192  1  0  0  0  0
191199  1  0  0  0  0
191200  1  0  0  0  0
192193  1  0  0  0  0
193201  1  0  0  0  0
193202  1  0  0  0  0
193203  1  0  0  0  0
M  END
>  <FIXED_ATOMS>
+ ATOM
|    1
|    2
|    3
|    4
|    5
|    6
|    7
|    8
|    9
|   10
|  186
|  187
|  188
|  189
|  190
|  191
|  192
|  193
|  194
|  195
|  196
|  197
|  198
|  199
|  200
|  201
|  202
|  203

$$$$
